LTspice 24.0.9 for Windows
Circuit: * C:\Users\sim\Documents\GitHub\New-Sommer-Tanner\circuitSims\v01\nstCircuitSim.asc
Start Time: Thu Apr 17 14:16:02 2025
r1: both pins shorted together -- ignoring.
r5: both pins shorted together -- ignoring.
r7: both pins shorted together -- ignoring.
r9: both pins shorted together -- ignoring.
r11: both pins shorted together -- ignoring.
r13: both pins shorted together -- ignoring.
r15: both pins shorted together -- ignoring.
r17: both pins shorted together -- ignoring.
r19: both pins shorted together -- ignoring.
r21: both pins shorted together -- ignoring.
r103: both pins shorted together -- ignoring.
r105: both pins shorted together -- ignoring.
r107: both pins shorted together -- ignoring.
r109: both pins shorted together -- ignoring.
r111: both pins shorted together -- ignoring.
r113: both pins shorted together -- ignoring.
r115: both pins shorted together -- ignoring.
r117: both pins shorted together -- ignoring.
r119: both pins shorted together -- ignoring.
r121: both pins shorted together -- ignoring.
r203: both pins shorted together -- ignoring.
r205: both pins shorted together -- ignoring.
r207: both pins shorted together -- ignoring.
r209: both pins shorted together -- ignoring.
r211: both pins shorted together -- ignoring.
r213: both pins shorted together -- ignoring.
r215: both pins shorted together -- ignoring.
r217: both pins shorted together -- ignoring.
r219: both pins shorted together -- ignoring.
r221: both pins shorted together -- ignoring.
r303: both pins shorted together -- ignoring.
r305: both pins shorted together -- ignoring.
r307: both pins shorted together -- ignoring.
r309: both pins shorted together -- ignoring.
r311: both pins shorted together -- ignoring.
r313: both pins shorted together -- ignoring.
r315: both pins shorted together -- ignoring.
r317: both pins shorted together -- ignoring.
r319: both pins shorted together -- ignoring.
r321: both pins shorted together -- ignoring.
solver = Normal
Maximum thread count: 24
tnom = 27
temp = 27
method = modified trap
WARNING: Node N094 is floating.
WARNING: Node N093 is floating.
WARNING: Node N092 is floating.
WARNING: Node N206 is floating.

WARNING: Less than two connections to node n095.  This node is used by r3.
WARNING: Less than two connections to node n092.  This node is used by r201.
.OP point found by inspection.
Ignoring empty pin current: Ix(u1:1)
Ignoring empty pin current: Ix(u1:2)
Ignoring empty pin current: Ix(u1:1)
Ignoring empty pin current: Ix(u1:2)
Total elapsed time: 0.104 seconds.

