LTspice 24.0.9 for Windows
Circuit: * C:\Users\sim\Documents\GitHub\New-Sommer-Tanner\circuitSims\v02\0_nstCircuitSim.asc
Start Time: Thu Apr 24 11:00:34 2025
solver = Normal
Maximum thread count: 24
tnom = 27
temp = 27
method = modified trap
WARNING: Node P007 is floating.

WARNING: Less than two connections to node nc_02.  This node is used by r:x1:x2:x5:4.
.OP point found by inspection.
Ignoring empty pin current: Ix(u1:1)
Ignoring empty pin current: Ix(u1:2)
Ignoring empty pin current: Ix(u1:1)
Ignoring empty pin current: Ix(u1:2)
Total elapsed time: 0.031 seconds.

