Circuit: * C:\Users\tenor\Documents\GitHub\New-Sommer-Tanner\circuitSims\v02\0_nstCircuitSim.asc

WARNING: Node NC_02 is floating.

WARNING: Less than two connections to node NC_01.  This node is used by R:X1:X5:4.
Ignoring empty pin current: Ix(u1:1)
Ignoring empty pin current: Ix(u1:2)

Date: Thu Apr 17 21:15:17 2025
Total elapsed time: 0.018 seconds.

tnom = 27
temp = 27
method = trap
totiter = 0
traniter = 0
tranpoints = 0
accept = 0
rejected = 0
matrix size = 22
fillins = 13
solver = Normal

