Circuit: * C:\Users\tenor\Documents\GitHub\New-Sommer-Tanner\circuitSims\v02\0_nstCircuitSim.asc

WARNING: Node NC_01 is floating.

WARNING: Less than two connections to node NC_02.  This node is used by R:X1:X2:X5:4.
Ignoring empty pin current: Ix(u1:1)
Ignoring empty pin current: Ix(u1:2)

Date: Wed Apr 30 20:36:18 2025
Total elapsed time: 0.027 seconds.

tnom = 27
temp = 27
method = trap
totiter = 0
traniter = 0
tranpoints = 0
accept = 0
rejected = 0
matrix size = 114
fillins = 69
solver = Normal

